<?xml version="1.0" encoding="UTF-8"?>

<!-- generated on 2025-04-02 16:18:03 by Eclipse SUMO netconvert Version 1.19.0
<configuration xmlns:xsi="http://www.w3.org/2001/XMLSchema-instance" xsi:noNamespaceSchemaLocation="http://sumo.dlr.de/xsd/netconvertConfiguration.xsd">

    <input>
        <osm-files value="C:\Users\Kelsey\Downloads\map.osm"/>
    </input>

    <output>
        <output-file value="C:\Users\Kelsey\Downloads\map.net.xml"/>
    </output>

    <projection>
        <proj.utm value="true"/>
    </projection>

</configuration>
-->

<net version="1.16" junctionCornerDetail="5" limitTurnSpeed="5.50" xmlns:xsi="http://www.w3.org/2001/XMLSchema-instance" xsi:noNamespaceSchemaLocation="http://sumo.dlr.de/xsd/net_file.xsd">

    <location netOffset="-646208.68,-5070151.73" convBoundary="0.00,0.00,3261.41,2861.88" origBoundary="4.834986,45.750356,4.923234,45.794496" projParameter="+proj=utm +zone=31 +ellps=WGS84 +datum=WGS84 +units=m +no_defs"/>

    <type id="highway.cycleway" priority="1" numLanes="1" speed="5.56" allow="bicycle" oneway="0" width="2.00"/>
    <type id="highway.footway" priority="1" numLanes="1" speed="2.78" allow="pedestrian" oneway="1" width="2.00"/>
    <type id="highway.motorway" priority="14" numLanes="2" speed="39.44" allow="private emergency authority army vip passenger hov taxi bus coach delivery truck trailer motorcycle evehicle custom1 custom2" oneway="1"/>
    <type id="highway.path" priority="1" numLanes="1" speed="5.56" allow="pedestrian bicycle" oneway="0" width="2.00"/>
    <type id="highway.pedestrian" priority="1" numLanes="1" speed="2.78" allow="pedestrian" oneway="1" width="2.00"/>
    <type id="highway.residential" priority="3" numLanes="1" speed="13.89" disallow="tram rail_urban rail rail_electric rail_fast ship" oneway="0"/>
    <type id="highway.secondary" priority="11" numLanes="1" speed="27.78" disallow="tram rail_urban rail rail_electric rail_fast ship" oneway="0"/>
    <type id="highway.service" priority="1" numLanes="1" speed="5.56" allow="pedestrian delivery bicycle" oneway="0"/>
    <type id="highway.tertiary" priority="10" numLanes="1" speed="22.22" disallow="tram rail_urban rail rail_electric rail_fast ship" oneway="0"/>
    <type id="highway.trunk" priority="13" numLanes="2" speed="27.78" disallow="pedestrian bicycle tram rail_urban rail rail_electric rail_fast ship" oneway="0"/>
    <type id="highway.trunk_link" priority="8" numLanes="1" speed="22.22" disallow="pedestrian bicycle tram rail_urban rail rail_electric rail_fast ship" oneway="0"/>
    <type id="highway.unclassified" priority="4" numLanes="1" speed="13.89" disallow="tram rail_urban rail rail_electric rail_fast ship" oneway="0"/>

    <edge id=":10658472973_0" function="internal">
        <lane id=":10658472973_0_0" index="0" allow="pedestrian delivery bicycle" speed="5.56" length="2.35" shape="383.29,1911.53 382.02,1913.51"/>
    </edge>
    <edge id=":10658472973_1" function="internal">
        <lane id=":10658472973_1_0" index="0" allow="pedestrian delivery bicycle" speed="3.65" length="1.44" shape="383.29,1911.53 381.97,1912.11"/>
    </edge>
    <edge id=":10658472973_4" function="internal">
        <lane id=":10658472973_4_0" index="0" allow="pedestrian delivery bicycle" speed="3.65" length="3.23" shape="381.97,1912.11 381.08,1912.02 380.62,1911.25 380.59,1909.81"/>
    </edge>
    <edge id=":10658472973_2" function="internal">
        <lane id=":10658472973_2_0" index="0" allow="pedestrian delivery bicycle" speed="5.56" length="2.35" shape="379.32,1911.79 380.59,1909.81"/>
    </edge>
    <edge id=":10658472973_3" function="internal">
        <lane id=":10658472973_3_0" index="0" allow="pedestrian delivery bicycle" speed="3.65" length="1.44" shape="379.32,1911.79 380.64,1911.21"/>
    </edge>
    <edge id=":10658472973_5" function="internal">
        <lane id=":10658472973_5_0" index="0" allow="pedestrian delivery bicycle" speed="3.65" length="3.23" shape="380.64,1911.21 381.53,1911.30 381.99,1912.07 382.02,1913.51"/>
    </edge>
    <edge id=":10658472979_0" function="internal">
        <lane id=":10658472979_0_0" index="0" allow="pedestrian delivery bicycle" speed="5.56" length="5.00" shape="394.22,1782.51 390.02,1779.80"/>
    </edge>
    <edge id=":10658472979_1" function="internal">
        <lane id=":10658472979_1_0" index="0" allow="pedestrian delivery bicycle" speed="3.65" length="1.44" shape="394.22,1782.51 393.65,1781.19"/>
    </edge>
    <edge id=":10658472979_4" function="internal">
        <lane id=":10658472979_4_0" index="0" allow="pedestrian delivery bicycle" speed="3.65" length="3.23" shape="393.65,1781.19 393.75,1780.30 394.52,1779.84 395.96,1779.82"/>
    </edge>
    <edge id=":10658472979_2" function="internal">
        <lane id=":10658472979_2_0" index="0" allow="pedestrian delivery bicycle" speed="5.56" length="5.00" shape="391.76,1777.11 395.96,1779.82"/>
    </edge>
    <edge id=":10658472979_3" function="internal">
        <lane id=":10658472979_3_0" index="0" allow="pedestrian delivery bicycle" speed="3.65" length="1.44" shape="391.76,1777.11 392.33,1778.43"/>
    </edge>
    <edge id=":10658472979_5" function="internal">
        <lane id=":10658472979_5_0" index="0" allow="pedestrian delivery bicycle" speed="3.65" length="3.23" shape="392.33,1778.43 392.24,1779.32 391.47,1779.78 390.02,1779.80"/>
    </edge>
    <edge id=":10658472981_0" function="internal">
        <lane id=":10658472981_0_0" index="0" allow="pedestrian delivery bicycle" speed="5.56" length="8.38" shape="443.95,1807.45 441.75,1808.36 440.36,1809.70 439.79,1811.47 440.02,1813.66"/>
    </edge>
    <edge id=":10658472981_1" function="internal">
        <lane id=":10658472981_1_0" index="0" allow="pedestrian delivery bicycle" speed="5.56" length="9.81" shape="443.95,1807.45 440.40,1808.30 437.61,1808.75 435.59,1808.79 434.34,1808.43"/>
    </edge>
    <edge id=":10658472981_2" function="internal">
        <lane id=":10658472981_2_0" index="0" allow="pedestrian delivery bicycle" speed="4.10" length="5.61" shape="443.95,1807.45 442.35,1808.09 441.28,1807.94 440.76,1807.00 440.79,1805.27"/>
    </edge>
    <edge id=":10658472981_3" function="internal">
        <lane id=":10658472981_3_0" index="0" allow="pedestrian delivery bicycle" speed="5.56" length="5.07" shape="436.07,1805.74 437.19,1806.25 438.35,1806.34 439.55,1806.01 440.79,1805.27"/>
    </edge>
    <edge id=":10658472981_4" function="internal">
        <lane id=":10658472981_4_0" index="0" allow="pedestrian delivery bicycle" speed="5.56" length="9.23" shape="436.07,1805.74 438.10,1807.39 439.01,1809.00 439.45,1810.96 440.02,1813.66"/>
    </edge>
    <edge id=":10658472981_5" function="internal">
        <lane id=":10658472981_5_0" index="0" allow="pedestrian delivery bicycle" speed="3.65" length="4.67" shape="436.07,1805.74 436.65,1807.07 436.55,1807.96 435.78,1808.41 434.34,1808.43"/>
    </edge>
    <edge id=":10658472981_6" function="internal">
        <lane id=":10658472981_6_0" index="0" allow="pedestrian delivery bicycle" speed="5.56" length="5.30" shape="436.56,1813.00 436.25,1811.44 436.01,1810.31 435.50,1809.38 434.34,1808.43"/>
    </edge>
    <edge id=":10658472981_7" function="internal">
        <lane id=":10658472981_7_0" index="0" allow="pedestrian delivery bicycle" speed="5.56" length="9.32" shape="436.56,1813.00 436.46,1811.09 437.13,1809.16 438.57,1807.22 440.79,1805.27"/>
    </edge>
    <edge id=":10658472981_8" function="internal">
        <lane id=":10658472981_8_0" index="0" allow="pedestrian delivery bicycle" speed="3.78" length="5.15" shape="436.56,1813.00 437.68,1811.87 438.62,1811.60 439.41,1812.20 440.02,1813.66"/>
    </edge>
    <edge id=":10658472982_0" function="internal">
        <lane id=":10658472982_0_0" index="0" allow="pedestrian delivery bicycle" speed="5.56" length="4.95" shape="453.66,1819.77 452.55,1819.26 451.41,1819.16 450.25,1819.46 449.06,1820.17"/>
    </edge>
    <edge id=":10658472982_1" function="internal">
        <lane id=":10658472982_1_0" index="0" allow="pedestrian delivery bicycle" speed="5.56" length="9.39" shape="453.66,1819.77 451.71,1818.05 451.00,1816.32 450.78,1814.24 450.30,1811.45"/>
    </edge>
    <edge id=":10658472982_2" function="internal">
        <lane id=":10658472982_2_0" index="0" allow="pedestrian delivery bicycle" speed="3.65" length="4.67" shape="453.66,1819.77 453.09,1818.44 453.18,1817.56 453.95,1817.10 455.40,1817.08"/>
    </edge>
    <edge id=":10658472982_3" function="internal">
        <lane id=":10658472982_3_0" index="0" allow="pedestrian delivery bicycle" speed="5.56" length="4.94" shape="453.66,1812.75 453.62,1814.12 453.89,1815.31 454.48,1816.29 455.40,1817.08"/>
    </edge>
    <edge id=":10658472982_4" function="internal">
        <lane id=":10658472982_4_0" index="0" allow="pedestrian delivery bicycle" speed="5.56" length="9.13" shape="453.66,1812.75 453.18,1815.36 452.44,1817.09 451.16,1818.51 449.06,1820.17"/>
    </edge>
    <edge id=":10658472982_5" function="internal">
        <lane id=":10658472982_5_0" index="0" allow="pedestrian delivery bicycle" speed="4.01" length="5.26" shape="453.66,1812.75 452.33,1813.68 451.33,1813.78 450.65,1813.03 450.30,1811.45"/>
    </edge>
    <edge id=":10658472982_6" function="internal">
        <lane id=":10658472982_6_0" index="0" allow="pedestrian delivery bicycle" speed="5.56" length="8.58" shape="446.10,1817.70 448.42,1816.77 449.89,1815.42 450.52,1813.64 450.30,1811.45"/>
    </edge>
    <edge id=":10658472982_7" function="internal">
        <lane id=":10658472982_7_0" index="0" allow="pedestrian delivery bicycle" speed="5.56" length="9.48" shape="446.10,1817.70 449.42,1816.94 452.07,1816.59 454.06,1816.63 455.40,1817.08"/>
    </edge>
    <edge id=":10658472982_8" function="internal">
        <lane id=":10658472982_8_0" index="0" allow="pedestrian delivery bicycle" speed="4.10" length="5.63" shape="446.10,1817.70 447.77,1817.21 448.82,1817.46 449.25,1818.45 449.06,1820.17"/>
    </edge>
    <edge id=":10658472983_0" function="internal">
        <lane id=":10658472983_0_0" index="0" allow="pedestrian delivery bicycle" speed="5.56" length="4.99" shape="444.43,1820.95 443.02,1820.90 441.82,1821.17 440.83,1821.76 440.04,1822.67"/>
    </edge>
    <edge id=":10658472983_1" function="internal">
        <lane id=":10658472983_1_0" index="0" allow="pedestrian delivery bicycle" speed="5.56" length="9.25" shape="444.43,1820.95 441.72,1820.33 439.63,1819.29 438.16,1817.83 437.32,1815.94"/>
    </edge>
    <edge id=":10658472983_2" function="internal">
        <lane id=":10658472983_2_0" index="0" allow="pedestrian delivery bicycle" speed="4.00" length="5.24" shape="444.43,1820.95 443.61,1819.55 443.60,1818.55 444.40,1817.94 446.00,1817.73"/>
    </edge>
    <edge id=":10658472983_3" function="internal">
        <lane id=":10658472983_3_0" index="0" allow="pedestrian delivery bicycle" speed="5.56" length="8.06" shape="440.07,1813.86 440.95,1816.00 442.23,1817.36 443.92,1817.94 446.00,1817.73"/>
    </edge>
    <edge id=":10658472983_4" function="internal">
        <lane id=":10658472983_4_0" index="0" allow="pedestrian delivery bicycle" speed="5.56" length="9.02" shape="440.07,1813.86 440.69,1816.73 440.89,1819.15 440.67,1821.13 440.04,1822.67"/>
    </edge>
    <edge id=":10658472983_5" function="internal">
        <lane id=":10658472983_5_0" index="0" allow="pedestrian delivery bicycle" speed="3.75" length="5.05" shape="440.07,1813.86 440.16,1815.41 439.74,1816.28 438.79,1816.45 437.32,1815.94"/>
    </edge>
    <edge id=":10658472983_6" function="internal">
        <lane id=":10658472983_6_0" index="0" allow="pedestrian delivery bicycle" speed="5.56" length="5.12" shape="437.35,1820.94 437.68,1820.11 437.79,1818.99 437.66,1817.60 437.32,1815.94"/>
    </edge>
    <edge id=":10658472983_7" function="internal">
        <lane id=":10658472983_7_0" index="0" allow="pedestrian delivery bicycle" speed="5.56" length="9.69" shape="437.35,1820.94 439.12,1818.96 440.93,1818.32 443.12,1818.18 446.00,1817.73"/>
    </edge>
    <edge id=":10658472983_8" function="internal">
        <lane id=":10658472983_8_0" index="0" allow="pedestrian delivery bicycle" speed="3.65" length="4.67" shape="437.35,1820.94 438.67,1820.36 439.56,1820.46 440.01,1821.22 440.04,1822.67"/>
    </edge>
    <edge id=":10658472984_0" function="internal">
        <lane id=":10658472984_0_0" index="0" allow="pedestrian delivery bicycle" speed="5.56" length="9.46" shape="381.95,1918.28 374.66,1912.26"/>
    </edge>
    <edge id=":10658472984_1" function="internal">
        <lane id=":10658472984_1_0" index="0" allow="pedestrian delivery bicycle" speed="5.56" length="7.52" shape="381.95,1918.28 380.12,1916.51 379.05,1914.87 378.75,1913.35 379.22,1911.96"/>
    </edge>
    <edge id=":10658472984_2" function="internal">
        <lane id=":10658472984_2_0" index="0" allow="pedestrian delivery bicycle" speed="3.65" length="4.67" shape="381.95,1918.28 381.54,1916.90 381.74,1916.03 382.55,1915.67 383.99,1915.81"/>
    </edge>
    <edge id=":10658472984_3" function="internal">
        <lane id=":10658472984_3_0" index="0" allow="pedestrian delivery bicycle" speed="4.39" length="3.20" shape="381.92,1913.68 381.90,1914.28 382.46,1914.82 383.26,1915.33 383.99,1915.81"/>
    </edge>
    <edge id=":10658472984_4" function="internal">
        <lane id=":10658472984_4_0" index="0" allow="pedestrian delivery bicycle" speed="5.56" length="8.37" shape="381.92,1913.68 380.75,1914.72 379.15,1914.82 377.12,1914.00 374.66,1912.26"/>
    </edge>
    <edge id=":10658472984_5" function="internal">
        <lane id=":10658472984_5_0" index="0" allow="pedestrian delivery bicycle" speed="3.65" length="4.67" shape="381.92,1913.68 380.60,1914.26 379.71,1914.17 379.25,1913.40 379.22,1911.96"/>
    </edge>
    <edge id=":10658472984_6" function="internal">
        <lane id=":10658472984_6_0" index="0" allow="pedestrian delivery bicycle" speed="4.25" length="3.56" shape="376.70,1909.79 377.34,1910.52 378.05,1911.43 378.71,1912.07 379.22,1911.96"/>
    </edge>
    <edge id=":10658472984_7" function="internal">
        <lane id=":10658472984_7_0" index="0" allow="pedestrian delivery bicycle" speed="5.56" length="9.45" shape="376.70,1909.79 383.99,1915.81"/>
    </edge>
    <edge id=":10658472984_8" function="internal">
        <lane id=":10658472984_8_0" index="0" allow="pedestrian delivery bicycle" speed="3.65" length="4.67" shape="376.70,1909.79 377.12,1911.17 376.91,1912.04 376.10,1912.41 374.66,1912.26"/>
    </edge>
    <edge id=":10658472997_0" function="internal">
        <lane id=":10658472997_0_0" index="0" allow="pedestrian delivery bicycle" speed="5.56" length="6.89" shape="450.24,1811.24 449.58,1809.71 448.51,1808.53 447.03,1807.72 445.14,1807.26"/>
    </edge>
    <edge id=":10658472997_1" function="internal">
        <lane id=":10658472997_1_0" index="0" allow="pedestrian delivery bicycle" speed="5.56" length="8.90" shape="450.24,1811.24 449.75,1808.68 449.69,1806.39 450.06,1804.36 450.88,1802.60"/>
    </edge>
    <edge id=":10658472997_2" function="internal">
        <lane id=":10658472997_2_0" index="0" allow="pedestrian delivery bicycle" speed="3.71" length="4.91" shape="450.24,1811.24 450.27,1809.72 450.75,1808.92 451.68,1808.81 453.07,1809.42"/>
    </edge>
    <edge id=":10658472997_3" function="internal">
        <lane id=":10658472997_3_0" index="0" allow="pedestrian delivery bicycle" speed="5.56" length="5.28" shape="453.58,1804.31 453.06,1805.41 452.79,1806.63 452.80,1807.96 453.07,1809.42"/>
    </edge>
    <edge id=":10658472997_4" function="internal">
        <lane id=":10658472997_4_0" index="0" allow="pedestrian delivery bicycle" speed="5.56" length="9.46" shape="453.58,1804.31 452.16,1805.91 450.28,1806.93 447.94,1807.38 445.14,1807.26"/>
    </edge>
    <edge id=":10658472997_5" function="internal">
        <lane id=":10658472997_5_0" index="0" allow="pedestrian delivery bicycle" speed="3.65" length="4.67" shape="453.58,1804.31 452.26,1804.90 451.37,1804.81 450.91,1804.04 450.88,1802.60"/>
    </edge>
    <edge id=":10658472997_6" function="internal">
        <lane id=":10658472997_6_0" index="0" allow="pedestrian delivery bicycle" speed="5.56" length="5.01" shape="446.43,1804.20 447.89,1804.26 449.12,1804.01 450.12,1803.46 450.88,1802.60"/>
    </edge>
    <edge id=":10658472997_7" function="internal">
        <lane id=":10658472997_7_0" index="0" allow="pedestrian delivery bicycle" speed="5.56" length="8.99" shape="446.43,1804.20 448.89,1804.80 450.81,1805.87 452.21,1807.41 453.07,1809.42"/>
    </edge>
    <edge id=":10658472997_8" function="internal">
        <lane id=":10658472997_8_0" index="0" allow="pedestrian delivery bicycle" speed="3.69" length="4.84" shape="446.43,1804.20 447.25,1805.45 447.31,1806.38 446.61,1806.98 445.14,1807.26"/>
    </edge>
    <edge id=":10658472999_0" function="internal">
        <lane id=":10658472999_0_0" index="0" allow="pedestrian delivery bicycle" speed="5.56" length="0.26" shape="444.75,1807.20 444.67,1807.21 444.63,1807.23 444.58,1807.27 444.51,1807.30"/>
    </edge>
    <edge id=":10658472999_1" function="internal">
        <lane id=":10658472999_1_0" index="0" allow="pedestrian delivery bicycle" speed="5.56" length="1.91" shape="443.68,1804.21 444.23,1804.07 444.62,1804.01 445.01,1804.02 445.57,1804.09"/>
    </edge>
    <edge id=":1109086580_0" function="internal">
        <lane id=":1109086580_0_0" index="0" allow="pedestrian delivery bicycle" speed="3.65" length="4.67" shape="438.81,1685.48 439.69,1686.62 439.82,1687.51 439.18,1688.14 437.79,1688.51"/>
    </edge>
    <edge id=":1109086594_0" function="internal">
        <lane id=":1109086594_0_0" index="0" allow="pedestrian delivery bicycle" speed="3.65" length="4.67" shape="414.24,1940.85 414.66,1942.23 414.46,1943.10 413.64,1943.47 412.20,1943.32"/>
    </edge>
    <edge id=":11298630651_0" function="internal">
        <lane id=":11298630651_0_0" index="0" allow="bus bicycle" speed="8.33" length="3.53" shape="727.49,1499.48 724.30,1497.96"/>
    </edge>
    <edge id=":11813537472_0" function="internal">
        <lane id=":11813537472_0_0" index="0" disallow="tram rail_urban rail rail_electric rail_fast ship" speed="8.33" length="7.98" shape="760.60,1457.50 761.49,1455.36 761.72,1453.74 761.91,1452.11 762.67,1449.90"/>
        <lane id=":11813537472_0_1" index="1" disallow="tram rail_urban rail rail_electric rail_fast ship" speed="8.33" length="7.98" shape="760.60,1457.50 761.95,1455.56 763.18,1454.42 764.35,1453.26 765.57,1451.25"/>
    </edge>
    <edge id=":11813537475_0" function="internal">
        <lane id=":11813537475_0_0" index="0" allow="bicycle" speed="5.56" length="4.52" width="2.00" shape="809.29,1347.69 808.16,1348.38 807.45,1348.99 806.93,1349.76 806.34,1350.95"/>
    </edge>
    <edge id=":11813537475_1" function="internal">
        <lane id=":11813537475_1_0" index="0" allow="bicycle" speed="2.89" length="1.23" width="2.00" shape="809.29,1347.69 808.39,1347.63 808.12,1347.45"/>
    </edge>
    <edge id=":11813537475_4" function="internal">
        <lane id=":11813537475_4_0" index="0" allow="bicycle" speed="2.89" length="1.69" width="2.00" shape="808.12,1347.45 807.92,1347.33 807.89,1346.77 808.29,1345.96"/>
    </edge>
    <edge id=":11813537475_2" function="internal">
        <lane id=":11813537475_2_0" index="0" allow="bicycle" speed="5.56" length="5.74" width="2.00" shape="804.53,1350.09 805.28,1348.58 805.95,1347.61 806.85,1346.84 808.29,1345.96"/>
    </edge>
    <edge id=":11813537475_3" function="internal">
        <lane id=":11813537475_3_0" index="0" allow="bicycle" speed="2.89" length="1.30" width="2.00" shape="804.53,1350.09 805.30,1349.63 805.70,1349.62"/>
    </edge>
    <edge id=":11813537475_5" function="internal">
        <lane id=":11813537475_5_0" index="0" allow="bicycle" speed="2.89" length="1.62" width="2.00" shape="805.70,1349.62 805.86,1349.62 806.20,1350.06 806.34,1350.95"/>
    </edge>
    <edge id=":11813537478_0" function="internal">
        <lane id=":11813537478_0_0" index="0" allow="bicycle" speed="6.95" length="7.85" width="2.00" shape="816.86,1338.04 815.67,1336.01 814.70,1334.59 814.18,1333.11 814.31,1330.91"/>
    </edge>
    <edge id=":11813537478_1" function="internal">
        <lane id=":11813537478_1_0" index="0" allow="bicycle" speed="2.70" length="1.84" width="2.00" shape="816.86,1338.04 817.04,1338.24 817.23,1338.11 817.42,1337.64 817.62,1336.83"/>
    </edge>
    <edge id=":11813537478_2" function="internal">
        <lane id=":11813537478_2_0" index="0" allow="bicycle" speed="2.89" length="2.92" width="2.00" shape="816.86,1338.04 816.99,1337.15 817.33,1336.71 817.89,1336.71 818.67,1337.17"/>
    </edge>
    <edge id=":11813537478_3" function="internal">
        <lane id=":11813537478_3_0" index="0" allow="bicycle" speed="6.95" length="5.61" width="2.00" shape="818.63,1331.74 818.26,1333.37 818.02,1334.54 818.09,1335.67 818.67,1337.17"/>
    </edge>
    <edge id=":11813537478_4" function="internal">
        <lane id=":11813537478_4_0" index="0" disallow="tram rail_urban rail rail_electric rail_fast ship" speed="8.33" length="5.18" shape="818.04,1331.63 817.03,1336.71"/>
    </edge>
    <edge id=":11813537478_5" function="internal">
        <lane id=":11813537478_5_0" index="0" disallow="tram rail_urban rail rail_electric rail_fast ship" speed="8.33" length="7.18" shape="813.48,1338.07 814.90,1331.02"/>
    </edge>
    <edge id=":11813537478_6" function="internal">
        <lane id=":11813537478_6_0" index="0" allow="bicycle" speed="5.07" length="3.26" width="2.00" shape="814.07,1338.19 814.93,1335.34 815.13,1335.14"/>
    </edge>
    <edge id=":11813537478_7" function="internal">
        <lane id=":11813537478_7_0" index="0" allow="bicycle" speed="5.07" length="5.38" width="2.00" shape="815.13,1335.14 815.98,1334.23 817.23,1334.84 818.67,1337.17"/>
    </edge>
    <edge id=":11903855549_0" function="internal">
        <lane id=":11903855549_0_0" index="0" disallow="tram rail_urban rail rail_electric rail_fast ship" speed="8.33" length="20.64" shape="962.16,1519.79 958.04,1517.81 952.60,1516.22 946.99,1515.05 942.38,1514.34"/>
    </edge>
    <edge id=":11903855549_1" function="internal">
        <lane id=":11903855549_1_0" index="0" disallow="tram rail_urban rail rail_electric rail_fast ship" speed="8.33" length="21.30" shape="962.16,1519.79 945.00,1507.18"/>
    </edge>
    <edge id=":11903855549_2" function="internal">
        <lane id=":11903855549_2_0" index="0" disallow="tram rail_urban rail rail_electric rail_fast ship" speed="3.65" length="4.67" shape="962.16,1519.79 961.64,1518.45 961.78,1517.57 962.56,1517.14 964.01,1517.18"/>
    </edge>
    <edge id=":11903855549_3" function="internal">
        <lane id=":11903855549_3_0" index="0" disallow="tram rail_urban rail rail_electric rail_fast ship" speed="8.33" length="21.22" shape="946.91,1504.61 964.01,1517.18"/>
    </edge>
    <edge id=":11903855549_4" function="internal">
        <lane id=":11903855549_4_0" index="0" disallow="tram rail_urban rail rail_electric rail_fast ship" speed="6.19" length="14.61" shape="946.91,1504.61 949.05,1507.74 948.66,1511.09 946.26,1513.63 942.38,1514.34"/>
    </edge>
    <edge id=":11903855549_5" function="internal">
        <lane id=":11903855549_5_0" index="0" disallow="tram rail_urban rail rail_electric rail_fast ship" speed="3.65" length="4.67" shape="946.91,1504.61 947.40,1505.97 947.24,1506.85 946.44,1507.25 945.00,1507.18"/>
    </edge>
    <edge id=":11903855549_6" function="internal">
        <lane id=":11903855549_6_0" index="0" disallow="tram rail_urban rail rail_electric rail_fast ship" speed="4.81" length="7.72" shape="943.12,1510.80 945.85,1510.63 947.07,1509.97 946.78,1508.82 945.00,1507.18"/>
    </edge>
    <edge id=":11903855549_7" function="internal">
        <lane id=":11903855549_7_0" index="0" disallow="tram rail_urban rail rail_electric rail_fast ship" speed="8.33" length="21.99" shape="943.12,1510.80 947.92,1511.44 953.91,1512.95 959.72,1514.98 964.01,1517.18"/>
    </edge>
    <edge id=":11903855549_8" function="internal">
        <lane id=":11903855549_8_0" index="0" disallow="tram rail_urban rail rail_electric rail_fast ship" speed="3.86" length="5.28" shape="943.12,1510.80 944.27,1511.97 944.52,1512.95 943.89,1513.74 942.38,1514.34"/>
    </edge>
    <edge id=":11903876769_0" function="internal">
        <lane id=":11903876769_0_0" index="0" disallow="tram rail_urban rail rail_electric rail_fast ship" speed="8.33" length="8.84" shape="784.16,1403.53 785.41,1401.25 786.61,1399.89 787.82,1398.53 789.12,1396.27"/>
    </edge>
    <edge id=":11903876769_1" function="internal">
        <lane id=":11903876769_1_0" index="0" disallow="tram rail_urban rail rail_electric rail_fast ship" speed="5.75" length="5.12" shape="787.10,1404.79 787.90,1403.18 788.72,1402.05 789.55,1401.40 790.41,1401.23"/>
    </edge>
    <edge id=":11905042839_0" function="internal">
        <lane id=":11905042839_0_0" index="0" disallow="tram rail_urban rail rail_electric rail_fast ship" speed="3.85" length="5.25" shape="942.18,1514.32 941.05,1513.16 940.79,1512.19 941.42,1511.40 942.92,1510.80"/>
    </edge>
    <edge id=":11918159735_0" function="internal">
        <lane id=":11918159735_0_0" index="0" allow="pedestrian bicycle" speed="2.89" length="2.92" width="2.00" shape="980.97,1471.46 980.22,1471.95 979.66,1471.98 979.30,1471.55 979.14,1470.67"/>
    </edge>
    <edge id=":12009583760_0" function="internal">
        <lane id=":12009583760_0_0" index="0" allow="pedestrian delivery bicycle" speed="5.56" length="8.31" shape="948.62,1897.37 944.42,1890.20"/>
    </edge>
    <edge id=":12009583760_1" function="internal">
        <lane id=":12009583760_1_0" index="0" allow="pedestrian delivery bicycle" speed="5.56" length="8.42" shape="948.62,1897.37 947.30,1894.62 946.94,1892.55 947.54,1891.14 949.11,1890.40"/>
    </edge>
    <edge id=":12009583760_2" function="internal">
        <lane id=":12009583760_2_0" index="0" allow="pedestrian delivery bicycle" speed="5.56" length="6.71" shape="949.74,1893.53 948.28,1893.55 946.90,1893.00 945.62,1891.88 944.42,1890.20"/>
    </edge>
    <edge id=":12009583760_3" function="internal">
        <lane id=":12009583760_3_0" index="0" allow="pedestrian delivery bicycle" speed="3.65" length="4.67" shape="949.74,1893.53 948.40,1892.98 947.85,1892.28 948.09,1891.42 949.11,1890.40"/>
    </edge>
    <edge id=":12009615675_0" function="internal">
        <lane id=":12009615675_0_0" index="0" allow="pedestrian delivery bicycle" speed="4.38" length="5.18" shape="944.32,1890.03 943.50,1889.10 942.65,1889.04 941.77,1889.85 940.84,1891.51"/>
    </edge>
    <edge id=":12009615675_1" function="internal">
        <lane id=":12009615675_1_0" index="0" allow="pedestrian delivery bicycle" speed="6.95" length="7.15" shape="944.32,1890.03 943.49,1888.83 942.20,1886.97 941.08,1885.11 940.77,1883.88"/>
    </edge>
    <edge id=":12009615675_2" function="internal">
        <lane id=":12009615675_2_0" index="0" disallow="tram rail_urban rail rail_electric rail_fast ship" speed="8.33" length="6.92" shape="943.69,1885.20 940.84,1891.51"/>
    </edge>
    <edge id=":12009615675_3" function="internal">
        <lane id=":12009615675_3_0" index="0" disallow="tram rail_urban rail rail_electric rail_fast ship" speed="8.33" length="6.93" shape="937.92,1890.20 940.77,1883.88"/>
    </edge>
    <edge id=":12011941134_0" function="internal">
        <lane id=":12011941134_0_0" index="0" allow="pedestrian delivery bicycle" speed="5.56" length="4.73" shape="954.57,1892.57 949.93,1893.49"/>
    </edge>
    <edge id=":12011941134_1" function="internal">
        <lane id=":12011941134_1_0" index="0" allow="pedestrian delivery bicycle" speed="3.65" length="1.44" shape="954.57,1892.57 953.24,1892.02"/>
    </edge>
    <edge id=":12011941134_4" function="internal">
        <lane id=":12011941134_4_0" index="0" allow="pedestrian delivery bicycle" speed="3.65" length="3.23" shape="953.24,1892.02 952.69,1891.31 952.92,1890.45 953.94,1889.43"/>
    </edge>
    <edge id=":12011941134_2" function="internal">
        <lane id=":12011941134_2_0" index="0" allow="pedestrian delivery bicycle" speed="5.56" length="4.73" shape="949.31,1890.36 953.94,1889.43"/>
    </edge>
    <edge id=":12011941134_3" function="internal">
        <lane id=":12011941134_3_0" index="0" allow="pedestrian delivery bicycle" speed="3.65" length="1.44" shape="949.31,1890.36 950.64,1890.91"/>
    </edge>
    <edge id=":12011941134_5" function="internal">
        <lane id=":12011941134_5_0" index="0" allow="pedestrian delivery bicycle" speed="3.65" length="3.23" shape="950.64,1890.91 951.19,1891.61 950.95,1892.48 949.93,1893.49"/>
    </edge>
    <edge id=":12057224820_0" function="internal">
        <lane id=":12057224820_0_0" index="0" allow="bus bicycle" speed="8.33" length="0.47" shape="605.27,1439.85 604.86,1439.64"/>
    </edge>
    <edge id=":12057224820_1" function="internal">
        <lane id=":12057224820_1_0" index="0" allow="bus bicycle" speed="3.65" length="1.44" shape="605.27,1439.85 604.52,1438.62"/>
    </edge>
    <edge id=":12057224820_3" function="internal">
        <lane id=":12057224820_3_0" index="0" allow="bus bicycle" speed="3.65" length="3.23" shape="604.52,1438.62 604.50,1437.73 605.20,1437.17 606.63,1436.95"/>
    </edge>
    <edge id=":12057224820_2" function="internal">
        <lane id=":12057224820_2_0" index="0" disallow="tram rail_urban rail rail_electric rail_fast ship" speed="8.33" length="0.84" shape="605.88,1436.58 606.63,1436.95"/>
    </edge>
    <edge id=":12057230972_0" function="internal">
        <lane id=":12057230972_0_0" index="0" allow="bicycle" speed="5.56" length="5.02" width="2.00" shape="770.13,1465.94 769.49,1467.29 769.03,1468.20 768.54,1469.09 767.77,1470.37"/>
    </edge>
    <edge id=":12057230972_1" function="internal">