<?xml version='1.0' encoding='utf-8'?>
<routes><vType id="car" accel="2.6" decel="4.5" sigma="0.5" length="4.5" maxSpeed="33.45" color="0,0,1" /><vType id="motorcycle" accel="3.0" decel="5.0" sigma="0.3" length="2.5" maxSpeed="140.0" color="1,0,0" /><vType id="truck" accel="1.2" decel="3.5" sigma="0.6" length="10.0" maxSpeed="25.0" color="1,0.5,0" /><flow id="car_flow_1" type="car" begin="0" end="60" vehsPerHour="2526.4" from="769108790" to="22715715" /><flow id="motorcycle_flow_1" type="motorcycle" begin="0" end="60" vehsPerHour="1515.8" from="769108790" to="22715715" /><flow id="truck_flow_1" type="truck" begin="0" end="60" vehsPerHour="757.9" from="769108790" to="22715715" /><flow id="car_flow_2" type="car" begin="60" end="120" vehsPerHour="2575.0" from="769108790" to="22715715" /><flow id="motorcycle_flow_2" type="motorcycle" begin="60" end="120" vehsPerHour="1545.0" from="769108790" to="22715715" /><flow id="truck_flow_2" type="truck" begin="60" end="120" vehsPerHour="772.5" from="769108790" to="22715715" /><flow id="car_flow_3" type="car" begin="120" end="180" vehsPerHour="1653.1" from="769108790" to="22715715" /><flow id="motorcycle_flow_3" type="motorcycle" begin="120" end="180" vehsPerHour="991.9" from="769108790" to="22715715" /><flow id="truck_flow_3" type="truck" begin="120" end="180" vehsPerHour="495.9" from="769108790" to="22715715" /><flow id="car_flow_4" type="car" begin="180" end="240" vehsPerHour="1366.3" from="769108790" to="22715715" /><flow id="motorcycle_flow_4" type="motorcycle" begin="180" end="240" vehsPerHour="819.8" from="769108790" to="22715715" /><flow id="truck_flow_4" type="truck" begin="180" end="240" vehsPerHour="409.9" from="769108790" to="22715715" /><flow id="car_flow_5" type="car" begin="240" end="300" vehsPerHour="2975.6" from="769108790" to="22715715" /><flow id="motorcycle_flow_5" type="motorcycle" begin="240" end="300" vehsPerHour="1785.3" from="769108790" to="22715715" /><flow id="truck_flow_5" type="truck" begin="240" end="300" vehsPerHour="892.7" from="769108790" to="22715715" /><flow id="car_flow_6" type="car" begin="300" end="360" vehsPerHour="2231.7" from="769108790" to="22715715" /><flow id="motorcycle_flow_6" type="motorcycle" begin="300" end="360" vehsPerHour="1339.0" from="769108790" to="22715715" /><flow id="truck_flow_6" type="truck" begin="300" end="360" vehsPerHour="669.5" from="769108790" to="22715715" /><flow id="car_flow_7" type="car" begin="360" end="420" vehsPerHour="1716.7" from="769108790" to="22715715" /><flow id="motorcycle_flow_7" type="motorcycle" begin="360" end="420" vehsPerHour="1030.0" from="769108790" to="22715715" /><flow id="truck_flow_7" type="truck" begin="360" end="420" vehsPerHour="515.0" from="769108790" to="22715715" /><flow id="car_flow_8" type="car" begin="420" end="480" vehsPerHour="2526.4" from="769108790" to="22715715" /><flow id="motorcycle_flow_8" type="motorcycle" begin="420" end="480" vehsPerHour="1515.8" from="769108790" to="22715715" /><flow id="truck_flow_8" type="truck" begin="420" end="480" vehsPerHour="757.9" from="769108790" to="22715715" /><flow id="car_flow_9" type="car" begin="480" end="540" vehsPerHour="1716.7" from="769108790" to="22715715" /><flow id="motorcycle_flow_9" type="motorcycle" begin="480" end="540" vehsPerHour="1030.0" from="769108790" to="22715715" /><flow id="truck_flow_9" type="truck" begin="480" end="540" vehsPerHour="515.0" from="769108790" to="22715715" /><flow id="car_flow_10" type="car" begin="540" end="600" vehsPerHour="3938.2" from="769108790" to="22715715" /><flow id="motorcycle_flow_10" type="motorcycle" begin="540" end="600" vehsPerHour="2362.9" from="769108790" to="22715715" /><flow id="truck_flow_10" type="truck" begin="540" end="600" vehsPerHour="1181.5" from="769108790" to="22715715" /><flow id="car_flow_11" type="car" begin="600" end="660" vehsPerHour="4057.6" from="769108790" to="22715715" /><flow id="motorcycle_flow_11" type="motorcycle" begin="600" end="660" vehsPerHour="2434.5" from="769108790" to="22715715" /><flow id="truck_flow_11" type="truck" begin="600" end="660" vehsPerHour="1217.3" from="769108790" to="22715715" /><flow id="car_flow_12" type="car" begin="660" end="720" vehsPerHour="2910.9" from="769108790" to="22715715" /><flow id="motorcycle_flow_12" type="motorcycle" begin="660" end="720" vehsPerHour="1746.5" from="769108790" to="22715715" /><flow id="truck_flow_12" type="truck" begin="660" end="720" vehsPerHour="873.3" from="769108790" to="22715715" /><flow id="car_flow_13" type="car" begin="720" end="780" vehsPerHour="2732.7" from="769108790" to="22715715" /><flow id="motorcycle_flow_13" type="motorcycle" begin="720" end="780" vehsPerHour="1639.6" from="769108790" to="22715715" /><flow id="truck_flow_13" type="truck" begin="720" end="780" vehsPerHour="819.8" from="769108790" to="22715715" /><flow id="car_flow_14" type="car" begin="780" end="840" vehsPerHour="2732.7" from="769108790" to="22715715" /><flow id="motorcycle_flow_14" type="motorcycle" begin="780" end="840" vehsPerHour="1639.6" from="769108790" to="22715715" /><flow id="truck_flow_14" type="truck" begin="780" end="840" vehsPerHour="819.8" from="769108790" to="22715715" /><flow id="car_flow_15" type="car" begin="840" end="900" vehsPerHour="2678.0" from="769108790" to="22715715" /><flow id="motorcycle_flow_15" type="motorcycle" begin="840" end="900" vehsPerHour="1606.8" from="769108790" to="22715715" /><flow id="truck_flow_15" type="truck" begin="840" end="900" vehsPerHour="803.4" from="769108790" to="22715715" /><flow id="car_flow_16" type="car" begin="900" end="960" vehsPerHour="3188.1" from="769108790" to="22715715" /><flow id="motorcycle_flow_16" type="motorcycle" begin="900" end="960" vehsPerHour="1912.9" from="769108790" to="22715715" /><flow id="truck_flow_16" type="truck" begin="900" end="960" vehsPerHour="956.4" from="769108790" to="22715715" /><flow id="car_flow_17" type="car" begin="960" end="1020" vehsPerHour="2526.4" from="769108790" to="22715715" /><flow id="motorcycle_flow_17" type="motorcycle" begin="960" end="1020" vehsPerHour="1515.8" from="769108790" to="22715715" /><flow id="truck_flow_17" type="truck" begin="960" end="1020" vehsPerHour="757.9" from="769108790" to="22715715" /><flow id="car_flow_18" type="car" begin="1020" end="1080" vehsPerHour="1998.5" from="769108790" to="22715715" /><flow id="motorcycle_flow_18" type="motorcycle" begin="1020" end="1080" vehsPerHour="1199.1" from="769108790" to="22715715" /><flow id="truck_flow_18" type="truck" begin="1020" end="1080" vehsPerHour="599.6" from="769108790" to="22715715" /><flow id="car_flow_19" type="car" begin="1080" end="1140" vehsPerHour="3719.4" from="769108790" to="22715715" /><flow id="motorcycle_flow_19" type="motorcycle" begin="1080" end="1140" vehsPerHour="2231.7" from="769108790" to="22715715" /><flow id="truck_flow_19" type="truck" begin="1080" end="1140" vehsPerHour="1115.8" from="769108790" to="22715715" /><flow id="car_flow_20" type="car" begin="1140" end="1200" vehsPerHour="1940.6" from="769108790" to="22715715" /><flow id="motorcycle_flow_20" type="motorcycle" begin="1140" end="1200" vehsPerHour="1164.3" from="769108790" to="22715715" /><flow id="truck_flow_20" type="truck" begin="1140" end="1200" vehsPerHour="582.2" from="769108790" to="22715715" /><flow id="car_flow_21" type="car" begin="1200" end="1260" vehsPerHour="2092.2" from="769108790" to="22715715" /><flow id="motorcycle_flow_21" type="motorcycle" begin="1200" end="1260" vehsPerHour="1255.3" from="769108790" to="22715715" /><flow id="truck_flow_21" type="truck" begin="1200" end="1260" vehsPerHour="627.7" from="769108790" to="22715715" /><flow id="car_flow_22" type="car" begin="1260" end="1320" vehsPerHour="3719.4" from="769108790" to="22715715" /><flow id="motorcycle_flow_22" type="motorcycle" begin="1260" end="1320" vehsPerHour="2231.7" from="769108790" to="22715715" /><flow id="truck_flow_22" type="truck" begin="1260" end="1320" vehsPerHour="1115.8" from="769108790" to="22715715" /><flow id="car_flow_23" type="car" begin="1320" end="1380" vehsPerHour="2975.6" from="769108790" to="22715715" /><flow id="motorcycle_flow_23" type="motorcycle" begin="1320" end="1380" vehsPerHour="1785.3" from="769108790" to="22715715" /><flow id="truck_flow_23" type="truck" begin="1320" end="1380" vehsPerHour="892.7" from="769108790" to="22715715" /><flow id="car_flow_24" type="car" begin="1380" end="1440" vehsPerHour="2678.0" from="769108790" to="22715715" /><flow id="motorcycle_flow_24" type="motorcycle" begin="1380" end="1440" vehsPerHour="1606.8" from="769108790" to="22715715" /><flow id="truck_flow_24" type="truck" begin="1380" end="1440" vehsPerHour="803.4" from="769108790" to="22715715" /><flow id="car_flow_25" type="car" begin="1440" end="1500" vehsPerHour="1998.5" from="769108790" to="22715715" /><flow id="motorcycle_flow_25" type="motorcycle" begin="1440" end="1500" vehsPerHour="1199.1" from="769108790" to="22715715" /><flow id="truck_flow_25" type="truck" begin="1440" end="1500" vehsPerHour="599.6" from="769108790" to="22715715" /><flow id="car_flow_26" type="car" begin="1500" end="1560" vehsPerHour="2526.4" from="769108790" to="22715715" /><flow id="motorcycle_flow_26" type="motorcycle" begin="1500" end="1560" vehsPerHour="1515.8" from="769108790" to="22715715" /><flow id="truck_flow_26" type="truck" begin="1500" end="1560" vehsPerHour="757.9" from="769108790" to="22715715" /><flow id="car_flow_27" type="car" begin="1560" end="1620" vehsPerHour="1785.3" from="769108790" to="22715715" /><flow id="motorcycle_flow_27" type="motorcycle" begin="1560" end="1620" vehsPerHour="1071.2" from="769108790" to="22715715" /><flow id="truck_flow_27" type="truck" begin="1560" end="1620" vehsPerHour="535.6" from="769108790" to="22715715" /><flow id="car_flow_28" type="car" begin="1620" end="1680" vehsPerHour="1071.2" from="769108790" to="22715715" /><flow id="motorcycle_flow_28" type="motorcycle" begin="1620" end="1680" vehsPerHour="642.7" from="769108790" to="22715715" /><flow id="truck_flow_28" type="truck" begin="1620" end="1680" vehsPerHour="321.4" from="769108790" to="22715715" /><flow id="car_flow_29" type="car" begin="1680" end="1740" vehsPerHour="1575.3" from="769108790" to="22715715" /><flow id="motorcycle_flow_29" type="motorcycle" begin="1680" end="1740" vehsPerHour="945.2" from="769108790" to="22715715" /><flow id="truck_flow_29" type="truck" begin="1680" end="1740" vehsPerHour="472.6" from="769108790" to="22715715" /><flow id="car_flow_30" type="car" begin="1740" end="1800" vehsPerHour="3188.1" from="769108790" to="22715715" /><flow id="motorcycle_flow_30" type="motorcycle" begin="1740" end="1800" vehsPerHour="1912.9" from="769108790" to="22715715" /><flow id="truck_flow_30" type="truck" begin="1740" end="1800" vehsPerHour="956.4" from="769108790" to="22715715" /><flow id="car_flow_31" type="car" begin="1800" end="1860" vehsPerHour="2678.0" from="769108790" to="22715715" /><flow id="motorcycle_flow_31" type="motorcycle" begin="1800" end="1860" vehsPerHour="1606.8" from="769108790" to="22715715" /><flow id="truck_flow_31" type="truck" begin="1800" end="1860" vehsPerHour="803.4" from="769108790" to="22715715" /><flow id="car_flow_32" type="car" begin="1860" end="1920" vehsPerHour="3433.3" from="769108790" to="22715715" /><flow id="motorcycle_flow_32" type="motorcycle" begin="1860" end="1920" vehsPerHour="2060.0" from="769108790" to="22715715" /><flow id="truck_flow_32" type="truck" begin="1860" end="1920" vehsPerHour="1030.0" from="769108790" to="22715715" /><flow id="car_flow_33" type="car" begin="1920" end="1980" vehsPerHour="2391.1" from="769108790" to="22715715" /><flow id="motorcycle_flow_33" type="motorcycle" begin="1920" end="1980" vehsPerHour="1434.6" from="769108790" to="22715715" /><flow id="truck_flow_33" type="truck" begin="1920" end="1980" vehsPerHour="717.3" from="769108790" to="22715715" /><flow id="car_flow_34" type="car" begin="1980" end="2040" vehsPerHour="3347.5" from="769108790" to="22715715" /><flow id="motorcycle_flow_34" type="motorcycle" begin="1980" end="2040" vehsPerHour="2008.5" from="769108790" to="22715715" /><flow id="truck_flow_34" type="truck" begin="1980" end="2040" vehsPerHour="1004.2" from="769108790" to="22715715" /><flow id="car_flow_35" type="car" begin="2040" end="2100" vehsPerHour="2159.7" from="769108790" to="22715715" /><flow id="motorcycle_flow_35" type="motorcycle" begin="2040" end="2100" vehsPerHour="1295.8" from="769108790" to="22715715" /><flow id="truck_flow_35" type="truck" begin="2040" end="2100" vehsPerHour="647.9" from="769108790" to="22715715" /><flow id="car_flow_36" type="car" begin="2100" end="2160" vehsPerHour="1859.7" from="769108790" to="22715715" /><flow id="motorcycle_flow_36" type="motorcycle" begin="2100" end="2160" vehsPerHour="1115.8" from="769108790" to="22715715" /><flow id="truck_flow_36" type="truck" begin="2100" end="2160" vehsPerHour="557.9" from="769108790" to="22715715" /><flow id="car_flow_37" type="car" begin="2160" end="2220" vehsPerHour="2231.7" from="769108790" to="22715715" /><flow id="motorcycle_flow_37" type="motorcycle" begin="2160" end="2220" vehsPerHour="1339.0" from="769108790" to="22715715" /><flow id="truck_flow_37" type="truck" begin="2160" end="2220" vehsPerHour="669.5" from="769108790" to="22715715" /><flow id="car_flow_38" type="car" begin="2220" end="2280" vehsPerHour="1716.7" from="769108790" to="22715715" /><flow id="motorcycle_flow_38" type="motorcycle" begin="2220" end="2280" vehsPerHour="1030.0" from="769108790" to="22715715" /><flow id="truck_flow_38" type="truck" begin="2220" end="2280" vehsPerHour="515.0" from="769108790" to="22715715" /><flow id="car_flow_39" type="car" begin="2280" end="2340" vehsPerHour="2159.7" from="769108790" to="22715715" /><flow id="motorcycle_flow_39" type="motorcycle" begin="2280" end="2340" vehsPerHour="1295.8" from="769108790" to="22715715" /><flow id="truck_flow_39" type="truck" begin="2280" end="2340" vehsPerHour="647.9" from="769108790" to="22715715" /><flow id="car_flow_40" type="car" begin="2340" end="2400" vehsPerHour="3618.9" from="769108790" to="22715715" /><flow id="motorcycle_flow_40" type="motorcycle" begin="2340" end="2400" vehsPerHour="2171.4" from="769108790" to="22715715" /><flow id="truck_flow_40" type="truck" begin="2340" end="2400" vehsPerHour="1085.7" from="769108790" to="22715715" /><flow id="car_flow_41" type="car" begin="2400" end="2460" vehsPerHour="3114.0" from="769108790" to="22715715" /><flow id="motorcycle_flow_41" type="motorcycle" begin="2400" end="2460" vehsPerHour="1868.4" from="769108790" to="22715715" /><flow id="truck_flow_41" type="truck" begin="2400" end="2460" vehsPerHour="934.2" from="769108790" to="22715715" /><flow id="car_flow_42" type="car" begin="2460" end="2520" vehsPerHour="3433.3" from="769108790" to="22715715" /><flow id="motorcycle_flow_42" type="motorcycle" begin="2460" end="2520" vehsPerHour="2060.0" from="769108790" to="22715715" /><flow id="truck_flow_42" type="truck" begin="2460" end="2520" vehsPerHour="1030.0" from="769108790" to="22715715" /><flow id="car_flow_43" type="car" begin="2520" end="2580" vehsPerHour="2678.0" from="769108790" to="22715715" /><flow id="motorcycle_flow_43" type="motorcycle" begin="2520" end="2580" vehsPerHour="1606.8" from="769108790" to="22715715" /><flow id="truck_flow_43" type="truck" begin="2520" end="2580" vehsPerHour="803.4" from="769108790" to="22715715" /><flow id="car_flow_44" type="car" begin="2580" end="2640" vehsPerHour="2434.5" from="769108790" to="22715715" /><flow id="motorcycle_flow_44" type="motorcycle" begin="2580" end="2640" vehsPerHour="1460.7" from="769108790" to="22715715" /><flow id="truck_flow_44" type="truck" begin="2580" end="2640" vehsPerHour="730.4" from="769108790" to="22715715" /><flow id="car_flow_45" type="car" begin="2640" end="2700" vehsPerHour="1504.5" from="769108790" to="22715715" /><flow id="motorcycle_flow_45" type="motorcycle" begin="2640" end="2700" vehsPerHour="902.7" from="769108790" to="22715715" /><flow id="truck_flow_45" type="truck" begin="2640" end="2700" vehsPerHour="451.3" from="769108790" to="22715715" /><flow id="car_flow_46" type="car" begin="2700" end="2760" vehsPerHour="2159.7" from="769108790" to="22715715" /><flow id="motorcycle_flow_46" type="motorcycle" begin="2700" end="2760" vehsPerHour="1295.8" from="769108790" to="22715715" /><flow id="truck_flow_46" type="truck" begin="2700" end="2760" vehsPerHour="647.9" from="769108790" to="22715715" /><flow id="car_flow_47" type="car" begin="2760" end="2820" vehsPerHour="1998.5" from="769108790" to="22715715" /><flow id="motorcycle_flow_47" type="motorcycle" begin="2760" end="2820" vehsPerHour="1199.1" from="769108790" to="22715715" /><flow id="truck_flow_47" type="truck" begin="2760" end="2820" vehsPerHour="599.6" from="769108790" to="22715715" /><flow id="car_flow_48" type="car" begin="2820" end="2880" vehsPerHour="1716.7" from="769108790" to="22715715" /><flow id="motorcycle_flow_48" type="motorcycle" begin="2820" end="2880" vehsPerHour="1030.0" from="769108790" to="22715715" /><flow id="truck_flow_48" type="truck" begin="2820" end="2880" vehsPerHour="515.0" from="769108790" to="22715715" /><flow id="car_flow_49" type="car" begin="2880" end="2940" vehsPerHour="2789.6" from="769108790" to="22715715" /><flow id="motorcycle_flow_49" type="motorcycle" begin="2880" end="2940" vehsPerHour="1673.8" from="769108790" to="22715715" /><flow id="truck_flow_49" type="truck" begin="2880" end="2940" vehsPerHour="836.9" from="769108790" to="22715715" /><flow id="car_flow_50" type="car" begin="2940" end="3000" vehsPerHour="2526.4" from="769108790" to="22715715" /><flow id="motorcycle_flow_50" type="motorcycle" begin="2940" end="3000" vehsPerHour="1515.8" from="769108790" to="22715715" /><flow id="truck_flow_50" type="truck" begin="2940" end="3000" vehsPerHour="757.9" from="769108790" to="22715715" /><flow id="car_flow_51" type="car" begin="3000" end="3060" vehsPerHour="2231.7" from="769108790" to="22715715" /><flow id="motorcycle_flow_51" type="motorcycle" begin="3000" end="3060" vehsPerHour="1339.0" from="769108790" to="22715715" /><flow id="truck_flow_51" type="truck" begin="3000" end="3060" vehsPerHour="669.5" from="769108790" to="22715715" /><flow id="car_flow_52" type="car" begin="3060" end="3120" vehsPerHour="1940.6" from="769108790" to="22715715" /><flow id="motorcycle_flow_52" type="motorcycle" begin="3060" end="3120" vehsPerHour="1164.3" from="769108790" to="22715715" /><flow id="truck_flow_52" type="truck" begin="3060" end="3120" vehsPerHour="582.2" from="769108790" to="22715715" /><flow id="car_flow_53" type="car" begin="3120" end="3180" vehsPerHour="2575.0" from="769108790" to="22715715" /><flow id="motorcycle_flow_53" type="motorcycle" begin="3120" end="3180" vehsPerHour="1545.0" from="769108790" to="22715715" /><flow id="truck_flow_53" type="truck" begin="3120" end="3180" vehsPerHour="772.5" from="769108790" to="22715715" /><flow id="car_flow_54" type="car" begin="3180" end="3240" vehsPerHour="2678.0" from="769108790" to="22715715" /><flow id="motorcycle_flow_54" type="motorcycle" begin="3180" end="3240" vehsPerHour="1606.8" from="769108790" to="22715715" /><flow id="truck_flow_54" type="truck" begin="3180" end="3240" vehsPerHour="803.4" from="769108790" to="22715715" /><flow id="car_flow_55" type="car" begin="3240" end="3300" vehsPerHour="716.0" from="769108790" to="22715715" /><flow id="motorcycle_flow_55" type="motorcycle" begin="3240" end="3300" vehsPerHour="429.6" from="769108790" to="22715715" /><flow id="truck_flow_55" type="truck" begin="3240" end="3300" vehsPerHour="214.8" from="769108790" to="22715715" /><flow id="car_flow_56" type="car" begin="3300" end="3360" vehsPerHour="1998.5" from="769108790" to="22715715" /><flow id="motorcycle_flow_56" type="motorcycle" begin="3300" end="3360" vehsPerHour="1199.1" from="769108790" to="22715715" /><flow id="truck_flow_56" type="truck" begin="3300" end="3360" vehsPerHour="599.6" from="769108790" to="22715715" /><flow id="car_flow_57" type="car" begin="3360" end="3420" vehsPerHour="1439.8" from="769108790" to="22715715" /><flow id="motorcycle_flow_57" type="motorcycle" begin="3360" end="3420" vehsPerHour="863.9" from="769108790" to="22715715" /><flow id="truck_flow_57" type="truck" begin="3360" end="3420" vehsPerHour="431.9" from="769108790" to="22715715" /><flow id="car_flow_58" type="car" begin="3420" end="3480" vehsPerHour="1439.8" from="769108790" to="22715715" /><flow id="motorcycle_flow_58" type="motorcycle" begin="3420" end="3480" vehsPerHour="863.9" from="769108790" to="22715715" /><flow id="truck_flow_58" type="truck" begin="3420" end="3480" vehsPerHour="431.9" from="769108790" to="22715715" /><flow id="car_flow_59" type="car" begin="3480" end="3540" vehsPerHour="2231.7" from="769108790" to="22715715" /><flow id="motorcycle_flow_59" type="motorcycle" begin="3480" end="3540" vehsPerHour="1339.0" from="769108790" to="22715715" /><flow id="truck_flow_59" type="truck" begin="3480" end="3540" vehsPerHour="669.5" from="769108790" to="22715715" /><flow id="car_flow_60" type="car" begin="3540" end="3600" vehsPerHour="2092.2" from="769108790" to="22715715" /><flow id="motorcycle_flow_60" type="motorcycle" begin="3540" end="3600" vehsPerHour="1255.3" from="769108790" to="22715715" /><flow id="truck_flow_60" type="truck" begin="3540" end="3600" vehsPerHour="627.7" from="769108790" to="22715715" /></routes>