<?xml version='1.0' encoding='utf-8'?>
<configuration><input><net-file value="111.net.xml" /><route-files value="dynamic_route.rou.xml" /></input><time><begin value="0" /><end value="3600" /></time><output><fcd-output value="veh_trajectories.xml" /></output></configuration>