<routes>
    <!-- 定义三类车辆 -->
    <vType id="car" accel="1.5" decel="4.5" length="5.0" minGap="2.5" maxSpeed="33.33" color="blue"/>
    <vType id="motorcycle" accel="2.0" decel="4.5" length="2.0" minGap="1.0" maxSpeed="38.89" color="red"/>
    <vType id="truck" accel="1.0" decel="4.0" length="10.0" minGap="3.0" maxSpeed="25.00" color="orange"/>

    <!-- 路线设置 -->
    <route id="route0" edges="769108790 22715715"/>

    <!-- 三类车辆流量设置 -->
    <flow id="flow_car" type="car" route="route0" begin="0" end="3600" vehsPerHour="2000" departSpeed="desired"/>
    <flow id="flow_motorcycle" type="motorcycle" route="route0" begin="0" end="3600" vehsPerHour="800" departSpeed="desired"/>
    <flow id="flow_truck" type="truck" route="route0" begin="0" end="3600" vehsPerHour="545" departSpeed="desired"/>
</routes>